@<TRIPOS>MOLECULE
RES
94 130 1 0 1
SMALL
NO_CHARGES
@<TRIPOS>CRYSIN
   13.7270    18.8380    15.0660    90.0000    90.0000    90.0000  1  1
@<TRIPOS>ATOM
       1 C           -1.7380     3.9820    -0.0330 C             1 RES     
       2 C           -0.3090     4.0200     0.5170 C             1 RES     
       3 C           -0.5150     3.3640     1.9670 C             1 RES     
       4 C           -1.9140     2.7420     2.0370 C             1 RES     
       5 C           -2.3380     2.8320     0.6150 C             1 RES     
       6 C           -1.7230     3.6250    -1.6010 C             1 RES     
       7 C           -2.8860     2.8770    -2.3090 C             1 RES     
       8 C           -3.8140     2.0380    -1.3490 C             1 RES     
       9 C           -3.6440     2.2010     0.1660 C             1 RES     
      10 C           -1.8820     1.2600     2.2110 C             1 RES     
      11 C            0.6440     2.5960     2.7150 C             1 RES     
      12 C            0.6350     3.0870    -0.1640 C             1 RES     
      13 C           -0.5480     2.7430    -1.9690 C             1 RES     
      14 C            1.9770     3.0120     0.4460 C             1 RES     
      15 C            0.7480     3.3720    -1.5910 C             1 RES     
      16 C            0.2830     1.2030     3.4370 C             1 RES     
      17 C           -1.2340     0.7260     3.4080 C             1 RES     
      18 C           -3.4280     0.7720     0.5680 C             1 RES     
      19 C           -3.2230     0.5810     2.0360 C             1 RES     
      20 C            1.8410     2.2430     1.7850 C             1 RES     
      21 C           -2.1610     2.0770    -3.4920 C             1 RES     
      22 C           -0.6660     2.4910    -3.3970 C             1 RES     
      23 C            1.6280     0.7950     1.5160 C             1 RES     
      24 C            1.3240     0.2230     2.8460 C             1 RES     
      25 C           -1.5430    -0.7980     3.1920 C             1 RES     
      26 C           -2.9190    -0.8450     2.4260 C             1 RES     
      27 C            2.7910     2.2940    -0.6690 C             1 RES     
      28 C            2.0060     2.6250    -1.9950 C             1 RES     
      29 C           -4.3160    -0.0920    -0.2260 C             1 RES     
      30 C           -4.0510     0.5270    -1.6230 C             1 RES     
      31 C            0.4020     1.4470    -3.8000 C             1 RES     
      32 C           -2.4310     0.5320    -3.4910 C             1 RES     
      33 C           -2.7580    -0.0280    -2.1500 C             1 RES     
      34 C            1.8270     1.5660    -3.1420 C             1 RES     
      35 C            3.0210     0.7730    -0.4780 C             1 RES     
      36 C            2.8880     0.2010     0.9370 C             1 RES     
      37 C            0.9110    -1.2390     2.7100 C             1 RES     
      38 C           -0.5200    -1.3000     2.2300 C             1 RES     
      39 C           -3.2030    -1.9640     1.3280 C             1 RES     
      40 C           -3.9360    -1.6020    -0.0340 C             1 RES     
      41 C           -2.9140    -1.4750    -2.4500 C             1 RES     
      42 C           -3.1390    -2.3200    -1.1810 C             1 RES     
      43 C           -2.0170    -2.8480     0.9250 C             1 RES     
      44 C           -0.7050    -2.6670     1.6910 C             1 RES     
      45 C            1.6550    -2.0530     1.6020 C             1 RES     
      46 C            2.7100    -1.3240     0.7040 C             1 RES     
      47 C            2.0650    -0.0710    -1.2420 C             1 RES     
      48 C            2.2350     0.1200    -2.7350 C             1 RES     
      49 C           -0.0230     0.1110    -3.3230 C             1 RES     
      50 C           -1.3030    -0.4130    -3.9630 C             1 RES     
      51 C            1.6720    -2.5800    -1.4320 C             1 RES     
      52 C            0.6200    -3.2930    -0.5070 C             1 RES     
      53 C           -0.6840    -3.2970    -1.3370 C             1 RES     
      54 C           -0.4940    -2.3220    -2.4410 C             1 RES     
      55 C            0.9630    -2.1660    -2.7750 C             1 RES     
      56 C            0.4670    -2.4720     0.7650 C             1 RES     
      57 C           -1.8240    -2.5910    -0.5420 C             1 RES     
      58 C           -1.6670    -1.8070    -3.3330 C             1 RES     
      59 C            1.2040    -0.7650    -3.4190 C             1 RES     
      60 C            2.5070    -1.4370    -0.8220 C             1 RES     
      61 C            1.0200     5.9210     2.4290 C             1 RES     
      62 C           -0.1060     6.3380     1.5080 C             1 RES     
      63 C            0.0110     5.5860     0.2380 C             1 RES     
      64 C           -1.2480     6.1870    -0.4380 C             1 RES     
      65 C           -2.1970     5.4310     0.4550 C             1 RES     
      66 C           -1.5710     6.0070     1.8430 C             1 RES     
      67 C           -1.8270     5.7710     3.3580 C             1 RES     
      68 C           -0.5600     5.4270     4.2010 C             1 RES     
      69 C            0.6680     6.2680     3.8410 C             1 RES     
      70 H            1.9660     6.4020     2.0860 H             1 RES     
      71 H            0.9540     5.8180    -0.3010 H             1 RES     
      72 H           -1.3410     7.3020    -0.3690 H             1 RES     
      73 H           -1.3740     5.9790    -1.5200 H             1 RES     
      74 H           -3.2750     5.6450     0.2980 H             1 RES     
      75 H           -2.6500     5.0610     3.5620 H             1 RES     
      76 H           -0.7530     5.5170     5.2870 H             1 RES     
      77 H            1.5410     5.9770     4.4670 H             1 RES     
      78 C            2.9210    -5.6110    -1.5740 C             1 RES     
      79 C            1.4210    -5.5830    -1.3110 C             1 RES     
      80 C            0.7990    -4.8190    -0.1720 C             1 RES     
      81 C           -0.6160    -5.4180    -0.3440 C             1 RES     
      82 C           -0.8270    -4.8160    -1.7290 C             1 RES     
      83 C            0.4260    -5.4680    -2.4600 C             1 RES     
      84 C            1.0010    -4.7650    -3.7020 C             1 RES     
      85 C            2.4980    -5.0460    -3.9400 C             1 RES     
      86 C            3.3230    -4.6910    -2.7040 C             1 RES     
      87 H            3.4980    -5.4490    -0.6370 H             1 RES     
      88 H            1.3260    -5.0430     0.7800 H             1 RES     
      89 H           -0.6470    -6.5360    -0.3410 H             1 RES     
      90 H           -1.3580    -5.1120     0.4070 H             1 RES     
      91 H           -1.7820    -5.0310    -2.2530 H             1 RES     
      92 H            0.3910    -4.9440    -4.6070 H             1 RES     
      93 H            2.8610    -4.4070    -4.7790 H             1 RES     
      94 H            4.4110    -4.8230    -2.8930 H             1 RES     
@<TRIPOS>BOND
       1        2        1 1
       2        5        1 1
       3        6        1 1
       4       65        1 1
       5        3        2 1
       6       12        2 1
       7       63        2 1
       8        4        5 1
       9        9        5 1
      10        7        6 1
      11       13        6 1
      12        4        3 1
      13       11        3 1
      14       14       12 1
      15       15       12 1
      16       10        4 1
      17       16       11 1
      18       20       11 1
      19       17       10 1
      20       19       10 1
      21        8        9 1
      22       18        9 1
      23        8        7 1
      24       21        7 1
      25       22       13 1
      26       15       13 1
      27       30        8 1
      28       22       21 1
      29       32       21 1
      30       29       30 1
      31       33       30 1
      32       19       18 1
      33       29       18 1
      34       16       17 1
      35       25       17 1
      36       26       19 1
      37       24       16 1
      38       14       20 1
      39       23       20 1
      40       27       14 1
      41       28       15 1
      42       31       22 1
      43       28       27 1
      44       35       27 1
      45       34       28 1
      46       23       24 1
      47       37       24 1
      48       26       25 1
      49       38       25 1
      50       40       29 1
      51       39       26 1
      52       36       23 1
      53       33       32 1
      54       50       32 1
      55       34       31 1
      56       49       31 1
      57       35       36 1
      58       46       36 1
      59       38       37 1
      60       45       37 1
      61       44       38 1
      62       40       39 1
      63       43       39 1
      64       47       35 1
      65       48       34 1
      66       42       40 1
      67       41       33 1
      68       50       49 1
      69       59       49 1
      70       58       50 1
      71       42       41 1
      72       58       41 1
      73       47       48 1
      74       59       48 1
      75       60       47 1
      76       45       46 1
      77       60       46 1
      78       56       45 1
      79       43       44 1
      80       56       44 1
      81       57       43 1
      82       57       42 1
      83       54       58 1
      84       53       57 1
      85       52       56 1
      86       51       60 1
      87       55       59 1
      88       52       51 1
      89       55       51 1
      90       53       52 1
      91       80       52 1
      92       54       55 1
      93       54       53 1
      94       82       53 1
      95       62       61 1
      96       69       61 1
      97       70       61 1
      98       63       62 1
      99       66       62 1
     100       68       69 1
     101       77       69 1
     102       64       63 1
     103       71       63 1
     104       65       66 1
     105       67       66 1
     106       65       64 1
     107       72       64 1
     108       73       64 1
     109       74       65 1
     110       68       67 1
     111       75       67 1
     112       76       68 1
     113       79       78 1
     114       86       78 1
     115       87       78 1
     116       80       79 1
     117       83       79 1
     118       85       86 1
     119       94       86 1
     120       81       80 1
     121       88       80 1
     122       82       83 1
     123       84       83 1
     124       82       81 1
     125       89       81 1
     126       90       81 1
     127       91       82 1
     128       85       84 1
     129       92       84 1
     130       93       85 1
@<TRIPOS>SUBSTRUCTURE
       1 RES             1 RESIDUE    0 **** ROOT      0
