@<TRIPOS>MOLECULE
RES
98 135 1 0 1
SMALL
NO_CHARGES
@<TRIPOS>CRYSIN
   17.3600    18.6350    13.2450    90.0000    90.0000    90.0000  1  1
@<TRIPOS>ATOM
       1 C           -1.8200    -1.3690     0.4780 C             1 RES     
       2 C           -1.1590    -0.7570     1.7500 C             1 RES     
       3 C            0.2370    -0.1280     1.7120 C             1 RES     
       4 C            0.8020     0.1920     0.3440 C             1 RES     
       5 C            1.4390     1.5930     0.4030 C             1 RES     
       6 C            1.3660     2.4820    -0.8770 C             1 RES     
       7 C            0.4500     1.9620    -1.9810 C             1 RES     
       8 C           -0.0800     3.1670    -2.7130 C             1 RES     
       9 C           -1.4060     3.0100    -3.5400 C             1 RES     
      10 C           -2.5460     3.9040    -3.0300 C             1 RES     
      11 C           -3.3960     3.0070    -2.1780 C             1 RES     
      12 C           -3.4920     1.8340    -3.0810 C             1 RES     
      13 C           -2.0720     1.5740    -3.5610 C             1 RES     
      14 C           -1.3670     0.5670    -2.6450 C             1 RES     
      15 C           -0.6830     1.1490    -1.4500 C             1 RES     
      16 C           -0.0870    -0.0780    -0.8690 C             1 RES     
      17 C           -1.2380    -1.0880    -0.9210 C             1 RES     
      18 C           -2.1130    -0.6880    -2.1740 C             1 RES     
      19 C           -3.5940    -0.4280    -1.8240 C             1 RES     
      20 C           -4.3640     0.6600    -2.5990 C             1 RES     
      21 C           -5.4770     1.1260    -1.5850 C             1 RES     
      22 C           -5.1360     0.4220    -0.2620 C             1 RES     
      23 C           -3.7310    -0.0160    -0.4270 C             1 RES     
      24 C           -3.3470    -1.0900     0.5820 C             1 RES     
      25 C           -3.4820    -0.4670     1.9830 C             1 RES     
      26 C           -2.1780     0.2820     2.0950 C             1 RES     
      27 C           -2.0270     0.9400     3.4430 C             1 RES     
      28 C           -3.1090     1.9940     3.4260 C             1 RES     
      29 C           -3.1460     2.8990     4.6040 C             1 RES     
      30 C           -4.5330     3.6350     4.4150 C             1 RES     
      31 C           -5.3740     2.6430     3.5450 C             1 RES     
      32 C           -4.4840     1.3850     3.4430 C             1 RES     
      33 C           -4.7160     0.4660     2.1980 C             1 RES     
      34 C           -4.9730     1.3070     0.9360 C             1 RES     
      35 C           -6.1100     2.2360     1.1540 C             1 RES     
      36 C           -6.4170     3.1090    -0.0600 C             1 RES     
      37 C           -5.7900     2.6640    -1.4400 C             1 RES     
      38 C           -4.7630     3.6140    -2.1060 C             1 RES     
      39 C           -4.7340     5.0210    -1.5170 C             1 RES     
      40 C           -3.5180     5.9150    -1.8410 C             1 RES     
      41 C           -2.2030     5.2100    -2.3070 C             1 RES     
      42 C           -1.2170     4.9180    -1.1910 C             1 RES     
      43 C            0.0760     4.3830    -1.7990 C             1 RES     
      44 C            1.0990     3.9910    -0.7170 C             1 RES     
      45 C            0.7720     4.4870     0.7150 C             1 RES     
      46 C            0.0530     3.4380     1.5860 C             1 RES     
      47 C            0.9870     2.2350     1.7010 C             1 RES     
      48 C            0.4840     1.1100     2.6130 C             1 RES     
      49 C           -0.6280     1.5470     3.6280 C             1 RES     
      50 C           -0.5590     3.0370     4.0790 C             1 RES     
      51 C           -1.8240     3.7270     4.6840 C             1 RES     
      52 C           -1.8890     5.1290     4.0570 C             1 RES     
      53 C           -0.5800     5.3220     3.2400 C             1 RES     
      54 C            0.0300     3.9680     3.0210 C             1 RES     
      55 C           -0.7260     6.2090     1.9690 C             1 RES     
      56 C           -2.1010     6.0990     1.3940 C             1 RES     
      57 C           -2.0530     6.8800     0.1510 C             1 RES     
      58 C           -3.4120     6.8690    -0.6100 C             1 RES     
      59 C           -4.6190     6.4300     0.2920 C             1 RES     
      60 C           -4.5290     6.5920     1.8360 C             1 RES     
      61 C           -3.1230     6.4890     2.3930 C             1 RES     
      62 C           -3.1110     5.2280     3.1590 C             1 RES     
      63 C           -4.4220     5.0990     3.8350 C             1 RES     
      64 C           -5.4080     5.6180     2.7170 C             1 RES     
      65 C           -6.1760     4.4930     1.9470 C             1 RES     
      66 C           -5.5070     3.1890     2.1360 C             1 RES     
      67 C           -6.1770     4.5680     0.4040 C             1 RES     
      68 C           -4.8000     4.9980    -0.0440 C             1 RES     
      69 C           -0.8290     6.2210    -0.4880 C             1 RES     
      70 C            0.1340     5.9160     0.7280 C             1 RES     
      71 C            0.5050    -3.1020    -2.1670 C             1 RES     
      72 C            0.1590    -3.1690    -0.6510 C             1 RES     
      73 C           -1.2660    -2.5640    -0.3900 C             1 RES     
      74 C           -2.4120    -3.4730    -0.9340 C             1 RES     
      75 C           -3.0850    -4.3180     0.1670 C             1 RES     
      76 C           -4.3920    -4.9310    -0.3690 C             1 RES     
      77 C           -5.2000    -5.6250     0.7270 C             1 RES     
      78 O           -4.5330    -6.7550     1.1990 O             1 RES     
      79 O           -6.4630    -5.9900     0.2300 O             1 RES     
      80 C           -7.4350    -5.3870     1.0510 C             1 RES     
      81 C            1.2820    -2.6160     0.2340 C             1 RES     
      82 C            2.6760    -3.0870    -0.1820 C             1 RES     
      83 C            2.9170    -2.8050    -1.6590 C             1 RES     
      84 C            1.9090    -3.6060    -2.4700 C             1 RES     
      85 H            0.4420    -2.0670    -2.5630 H             1 RES     
      86 H           -2.0550    -4.1280    -1.7580 H             1 RES     
      87 H           -3.2090    -2.8580    -1.3760 H             1 RES     
      88 H           -3.3630    -3.6620     1.0180 H             1 RES     
      89 H           -2.3890    -5.0960     0.5460 H             1 RES     
      90 H           -4.1830    -5.6350    -1.2030 H             1 RES     
      91 H           -5.0300    -4.1050    -0.7570 H             1 RES     
      92 H           -8.4120    -5.4200     0.5240 H             1 RES     
      93 H           -7.2280    -4.3070     1.2430 H             1 RES     
      94 H           -7.5420    -5.9510     2.0020 H             1 RES     
      95 H            1.0950    -2.8660     1.2980 H             1 RES     
      96 H            3.4340    -2.5460     0.4230 H             1 RES     
      97 H            3.9480    -3.1040    -1.9410 H             1 RES     
      98 H            2.1090    -3.4720    -3.5560 H             1 RES     
@<TRIPOS>BOND
       1        2        1 1
       2       17        1 1
       3       24        1 1
       4       73        1 1
       5        3        2 1
       6       26        2 1
       7       16       17 1
       8       18       17 1
       9       73       17 1
      10       23       24 1
      11       25       24 1
      12        4        3 1
      13       48        3 1
      14       25       26 1
      15       27       26 1
      16        5        4 1
      17       16        4 1
      18       47       48 1
      19       49       48 1
      20        6        5 1
      21       47        5 1
      22       15       16 1
      23        7        6 1
      24       44        6 1
      25       46       47 1
      26        8        7 1
      27       15        7 1
      28       43       44 1
      29       45       44 1
      30        9        8 1
      31       43        8 1
      32       14       15 1
      33       10        9 1
      34       13        9 1
      35       42       43 1
      36       11       10 1
      37       41       10 1
      38       12       13 1
      39       14       13 1
      40       12       11 1
      41       38       11 1
      42       40       41 1
      43       42       41 1
      44       20       12 1
      45       37       38 1
      46       39       38 1
      47       19       20 1
      48       21       20 1
      49       18       14 1
      50       19       18 1
      51       23       19 1
      52       22       23 1
      53       22       21 1
      54       37       21 1
      55       34       22 1
      56       36       37 1
      57       33       34 1
      58       35       34 1
      59       33       25 1
      60       32       33 1
      61       28       27 1
      62       49       27 1
      63       29       28 1
      64       32       28 1
      65       50       49 1
      66       30       29 1
      67       51       29 1
      68       31       32 1
      69       31       30 1
      70       63       30 1
      71       50       51 1
      72       52       51 1
      73       66       31 1
      74       62       63 1
      75       64       63 1
      76       35       66 1
      77       65       66 1
      78       36       35 1
      79       67       36 1
      80       65       67 1
      81       68       67 1
      82       40       39 1
      83       68       39 1
      84       58       40 1
      85       59       68 1
      86       57       58 1
      87       59       58 1
      88       69       42 1
      89       57       69 1
      90       70       69 1
      91       46       45 1
      92       70       45 1
      93       54       46 1
      94       55       70 1
      95       50       54 1
      96       53       54 1
      97       53       52 1
      98       62       52 1
      99       55       53 1
     100       61       62 1
     101       56       55 1
     102       57       56 1
     103       61       56 1
     104       60       61 1
     105       60       59 1
     106       64       60 1
     107       65       64 1
     108       72       71 1
     109       84       71 1
     110       85       71 1
     111       73       72 1
     112       81       72 1
     113       83       84 1
     114       98       84 1
     115       74       73 1
     116       82       81 1
     117       95       81 1
     118       75       74 1
     119       86       74 1
     120       87       74 1
     121       76       75 1
     122       88       75 1
     123       89       75 1
     124       77       76 1
     125       90       76 1
     126       91       76 1
     127       78       77 1
     128       79       77 1
     129       80       79 1
     130       92       80 1
     131       93       80 1
     132       94       80 1
     133       83       82 1
     134       96       82 1
     135       97       83 1
@<TRIPOS>SUBSTRUCTURE
       1 RES             1 RESIDUE    0 **** ROOT      0
